lig_ejm_48_D
  -Sire-202200300

 42 44  0  0  0  0  0  0  0  0999 V2000
   -6.0020   -3.7510  -15.2240 C   0  0  0  0  0  0  0  0  0  0  0  0
   -6.2920   -4.4660  -16.3840 C   0  0  0  0  0  0  0  0  0  0  0  0
   -7.0580   -5.6370  -16.3220 C   0  0  0  0  0  0  0  0  0  0  0  0
   -7.5960   -6.0890  -15.0790 C   0  0  0  0  0  0  0  0  0  0  0  0
   -7.3060   -5.3320  -13.9160 C   0  0  0  0  0  0  0  0  0  0  0  0
   -6.4660   -4.2230  -13.9920 C   0  0  0  0  0  0  0  0  0  0  0  0
   -7.9540   -5.7100  -12.3230 Cl  0  0  0  0  0  0  0  0  0  0  0  0
   -8.4820   -7.3050  -14.9800 C   0  0  0  0  0  0  0  0  0  0  0  0
   -9.4660   -7.3410  -14.2630 O   0  0  0  0  0  0  0  0  0  0  0  0
   -8.1150   -8.3560  -15.7820 N   0  0  0  0  0  0  0  0  0  0  0  0
   -8.8590   -9.4810  -16.1730 C   0  0  0  0  0  0  0  0  0  0  0  0
   -9.7120  -10.1660  -15.3180 C   0  0  0  0  0  0  0  0  0  0  0  0
  -10.4040  -11.2660  -15.8160 C   0  0  0  0  0  0  0  0  0  0  0  0
  -10.2610  -11.7230  -17.0790 N   0  0  0  0  0  0  0  0  0  0  0  0
   -9.4200  -11.0790  -17.8990 C   0  0  0  0  0  0  0  0  0  0  0  0
   -8.7270   -9.9390  -17.4790 C   0  0  0  0  0  0  0  0  0  0  0  0
   -9.2780  -11.6440  -19.1860 N   0  0  0  0  0  0  0  0  0  0  0  0
   -8.2340  -11.4570  -20.0920 C   0  0  0  0  0  0  0  0  0  0  0  0
   -7.2680  -10.7780  -19.8300 O   0  0  0  0  0  0  0  0  0  0  0  0
   -8.3590  -12.1070  -21.4940 C   0  0  0  0  0  0  0  0  0  0  0  0
   -7.5090  -11.4160  -22.6100 C   0  0  0  0  0  0  0  0  0  0  0  0
   -7.3460  -12.4570  -23.7230 C   0  0  0  0  0  0  0  0  0  0  0  0
   -7.6290  -13.8230  -23.0710 C   0  0  0  0  0  0  0  0  0  0  0  0
   -7.9080  -13.5630  -21.5670 C   0  0  0  0  0  0  0  0  0  0  0  0
   -7.3480   -6.4310  -17.8610 Cl  0  0  0  0  0  0  0  0  0  0  0  0
   -5.4410   -2.8230  -15.2910 H   0  0  0  0  0  0  0  0  0  0  0  0
   -5.9290   -4.0990  -17.3430 H   0  0  0  0  0  0  0  0  0  0  0  0
   -6.2350   -3.6870  -13.0810 H   0  0  0  0  0  0  0  0  0  0  0  0
   -7.2670   -8.2030  -16.3100 H   0  0  0  0  0  0  0  0  0  0  0  0
   -9.8570   -9.8610  -14.2860 H   0  0  0  0  0  0  0  0  0  0  0  0
  -11.0800  -11.8180  -15.1680 H   0  0  0  0  0  0  0  0  0  0  0  0
   -8.0860   -9.3900  -18.1550 H   0  0  0  0  0  0  0  0  0  0  0  0
  -10.0670  -12.2270  -19.4410 H   0  0  0  0  0  0  0  0  0  0  0  0
   -9.4080  -12.1230  -21.7990 H   0  0  0  0  0  0  0  0  0  0  0  0
   -6.5110  -11.1490  -22.2380 H   0  0  0  0  0  0  0  0  0  0  0  0
   -7.9600  -10.4990  -23.0070 H   0  0  0  0  0  0  0  0  0  0  0  0
   -6.3370  -12.4190  -24.1550 H   0  0  0  0  0  0  0  0  0  0  0  0
   -8.0660  -12.2640  -24.5280 H   0  0  0  0  0  0  0  0  0  0  0  0
   -6.7810  -14.5030  -23.2230 H   0  0  0  0  0  0  0  0  0  0  0  0
   -8.5090  -14.2750  -23.5460 H   0  0  0  0  0  0  0  0  0  0  0  0
   -8.6850  -14.2270  -21.1640 H   0  0  0  0  0  0  0  0  0  0  0  0
   -6.9820  -13.6960  -20.9940 H   0  0  0  0  0  0  0  0  0  0  0  0
  1  2  2  0         
  1 26  1  0         
  1  6  1  0         
  2  3  1  0         
  2 27  1  0         
  3  4  2  0         
  3 25  1  0         
  4  8  1  0         
  4  5  1  0         
  5  6  2  0         
  5  7  1  0         
  6 28  1  0         
  8  9  2  0         
  8 10  1  0         
 10 29  1  0         
 10 11  1  0         
 11 16  1  0         
 11 12  2  0         
 12 13  1  0         
 12 30  1  0         
 13 14  2  0         
 13 31  1  0         
 14 15  1  0         
 15 17  1  0         
 15 16  2  0         
 16 32  1  0         
 17 18  1  0         
 17 33  1  0         
 18 19  2  0         
 18 20  1  0         
 20 24  1  0         
 20 34  1  0         
 20 21  1  0         
 21 35  1  0         
 21 36  1  0         
 21 22  1  0         
 22 23  1  0         
 22 38  1  0         
 22 37  1  0         
 23 24  1  0         
 23 39  1  0         
 23 40  1  0         
 24 41  1  0         
 24 42  1  0         
M  END
> <Flexibility_cresset>
2.3

> <Favorite_cresset>
true

> <Poses_cresset>
0

> <LF dG>
-10.132

> <#Atoms_cresset>
25

> <SlogP_cresset>
4.8

> <Protein_cresset>
AF_fixed_His_P (1)

> <MW_cresset>
378.3

> <TPSA_cresset>
71.1

> <LF VSscore>
-11.15

> <LF LE>
-0.405

> <Rof5_cresset>
0

> <Confs_cresset>
0

> <LF Rank Score>
-5.838

$$$$
