lig_ejm_31_D
  -Sire-202200300

 32 33  0  0  0  0  0  0  0  0999 V2000
   -5.7400   -3.6700  -16.1880 C   0  0  0  0  0  0  0  0  0  0  0  0
   -6.1980   -3.9110  -14.8930 C   0  0  0  0  0  0  0  0  0  0  0  0
   -7.0060   -5.0110  -14.5970 C   0  0  0  0  0  0  0  0  0  0  0  0
   -7.3750   -5.9200  -15.6220 C   0  0  0  0  0  0  0  0  0  0  0  0
   -6.8960   -5.6650  -16.9440 C   0  0  0  0  0  0  0  0  0  0  0  0
   -6.0940   -4.5470  -17.2110 C   0  0  0  0  0  0  0  0  0  0  0  0
   -7.2910   -6.6540  -18.3440 Cl  0  0  0  0  0  0  0  0  0  0  0  0
   -8.3040   -7.0700  -15.3080 C   0  0  0  0  0  0  0  0  0  0  0  0
   -9.2420   -6.9610  -14.5400 O   0  0  0  0  0  0  0  0  0  0  0  0
   -8.0440   -8.2330  -15.9900 N   0  0  0  0  0  0  0  0  0  0  0  0
   -8.8840   -9.3400  -16.1960 C   0  0  0  0  0  0  0  0  0  0  0  0
   -9.7450   -9.8520  -15.2280 C   0  0  0  0  0  0  0  0  0  0  0  0
  -10.5270  -10.9640  -15.5480 C   0  0  0  0  0  0  0  0  0  0  0  0
  -10.4800  -11.5750  -16.7490 N   0  0  0  0  0  0  0  0  0  0  0  0
   -9.6540  -11.0740  -17.6740 C   0  0  0  0  0  0  0  0  0  0  0  0
   -8.8540   -9.9580  -17.4380 C   0  0  0  0  0  0  0  0  0  0  0  0
   -9.6470  -11.7740  -18.8760 N   0  0  0  0  0  0  0  0  0  0  0  0
   -8.7150  -11.7940  -19.8890 C   0  0  0  0  0  0  0  0  0  0  0  0
   -7.7400  -11.0710  -19.9290 O   0  0  0  0  0  0  0  0  0  0  0  0
   -8.9630  -12.8260  -20.9680 C   0  0  0  0  0  0  0  0  0  0  0  0
   -7.5090   -5.1920  -12.9160 Cl  0  0  0  0  0  0  0  0  0  0  0  0
   -5.1210   -2.8010  -16.3990 H   0  0  0  0  0  0  0  0  0  0  0  0
   -5.9380   -3.2200  -14.1080 H   0  0  0  0  0  0  0  0  0  0  0  0
   -5.7620   -4.3490  -18.2280 H   0  0  0  0  0  0  0  0  0  0  0  0
   -7.2390   -8.1920  -16.6020 H   0  0  0  0  0  0  0  0  0  0  0  0
   -9.8310   -9.4030  -14.2430 H   0  0  0  0  0  0  0  0  0  0  0  0
  -11.2120  -11.3870  -14.8190 H   0  0  0  0  0  0  0  0  0  0  0  0
   -8.2180   -9.5490  -18.2120 H   0  0  0  0  0  0  0  0  0  0  0  0
  -10.4710  -12.3580  -18.9690 H   0  0  0  0  0  0  0  0  0  0  0  0
   -8.2740  -12.6650  -21.8070 H   0  0  0  0  0  0  0  0  0  0  0  0
   -8.8000  -13.8300  -20.5660 H   0  0  0  0  0  0  0  0  0  0  0  0
   -9.9900  -12.7560  -21.3300 H   0  0  0  0  0  0  0  0  0  0  0  0
  1  2  2  0         
  1  6  1  0         
  1 22  1  0         
  2 23  1  0         
  2  3  1  0         
  3  4  2  0         
  3 21  1  0         
  4  8  1  0         
  4  5  1  0         
  5  6  2  0         
  5  7  1  0         
  6 24  1  0         
  8  9  2  0         
  8 10  1  0         
 10 25  1  0         
 10 11  1  0         
 11 16  1  0         
 11 12  2  0         
 12 13  1  0         
 12 26  1  0         
 13 14  2  0         
 13 27  1  0         
 14 15  1  0         
 15 17  1  0         
 15 16  2  0         
 16 28  1  0         
 17 18  1  0         
 17 29  1  0         
 18 19  2  0         
 18 20  1  0         
 20 30  1  0         
 20 31  1  0         
 20 32  1  0         
M  END
> <Flexibility_cresset>
0.8

> <Favorite_cresset>
false

> <Poses_cresset>
0

> <LF dG>
-8.799

> <#Atoms_cresset>
21

> <SlogP_cresset>
3.7

> <Protein_cresset>
AF_fixed_His_P (1)

> <MW_cresset>
324.2

> <TPSA_cresset>
71.1

> <LF VSscore>
-9.666

> <LF LE>
-0.419

> <Rof5_cresset>
0

> <Confs_cresset>
0

> <LF Rank Score>
-5.791

$$$$
