lig_ejm_55_D
  -Sire-202200300

 33 34  0  0  0  0  0  0  0  0999 V2000
   -5.6350   -3.5490  -16.5520 C   0  0  0  0  0  0  0  0  0  0  0  0
   -6.2630   -3.9410  -15.3620 C   0  0  0  0  0  0  0  0  0  0  0  0
   -6.8330   -5.2180  -15.2360 C   0  0  0  0  0  0  0  0  0  0  0  0
   -6.7120   -6.1520  -16.2940 C   0  0  0  0  0  0  0  0  0  0  0  0
   -6.1130   -5.7280  -17.5060 C   0  0  0  0  0  0  0  0  0  0  0  0
   -5.5830   -4.4350  -17.6330 C   0  0  0  0  0  0  0  0  0  0  0  0
   -6.0830   -6.7650  -18.9230 Cl  0  0  0  0  0  0  0  0  0  0  0  0
   -7.1470   -7.5870  -16.1690 C   0  0  0  0  0  0  0  0  0  0  0  0
   -6.3730   -8.5040  -16.3760 O   0  0  0  0  0  0  0  0  0  0  0  0
   -8.4580   -7.8120  -15.8180 N   0  0  0  0  0  0  0  0  0  0  0  0
   -9.1370   -9.0370  -15.9720 C   0  0  0  0  0  0  0  0  0  0  0  0
   -9.8940   -9.5750  -14.9340 C   0  0  0  0  0  0  0  0  0  0  0  0
  -10.5830  -10.7710  -15.1580 C   0  0  0  0  0  0  0  0  0  0  0  0
  -10.5410  -11.4370  -16.3290 N   0  0  0  0  0  0  0  0  0  0  0  0
   -9.7930  -10.9240  -17.3120 C   0  0  0  0  0  0  0  0  0  0  0  0
   -9.0940   -9.7220  -17.1840 C   0  0  0  0  0  0  0  0  0  0  0  0
   -9.8020  -11.6750  -18.4760 N   0  0  0  0  0  0  0  0  0  0  0  0
   -8.9390  -11.7130  -19.5190 C   0  0  0  0  0  0  0  0  0  0  0  0
   -7.9380  -11.0330  -19.6440 O   0  0  0  0  0  0  0  0  0  0  0  0
   -9.3670  -12.6490  -20.4020 O   0  0  0  0  0  0  0  0  0  0  0  0
   -8.5930  -12.9130  -21.5900 C   0  0  0  0  0  0  0  0  0  0  0  0
   -7.7040   -5.5760  -13.7530 Cl  0  0  0  0  0  0  0  0  0  0  0  0
   -5.2210   -2.5470  -16.6430 H   0  0  0  0  0  0  0  0  0  0  0  0
   -6.3110   -3.2430  -14.5350 H   0  0  0  0  0  0  0  0  0  0  0  0
   -5.1330   -4.1210  -18.5720 H   0  0  0  0  0  0  0  0  0  0  0  0
   -9.0100   -7.0100  -15.5520 H   0  0  0  0  0  0  0  0  0  0  0  0
   -9.9470   -9.0860  -13.9640 H   0  0  0  0  0  0  0  0  0  0  0  0
  -11.1860  -11.2200  -14.3770 H   0  0  0  0  0  0  0  0  0  0  0  0
   -8.5240   -9.3130  -18.0120 H   0  0  0  0  0  0  0  0  0  0  0  0
  -10.6110  -12.2710  -18.5830 H   0  0  0  0  0  0  0  0  0  0  0  0
   -7.6370  -13.3860  -21.3290 H   0  0  0  0  0  0  0  0  0  0  0  0
   -9.1480  -13.5910  -22.2500 H   0  0  0  0  0  0  0  0  0  0  0  0
   -8.3960  -11.9840  -22.1400 H   0  0  0  0  0  0  0  0  0  0  0  0
  1 23  1  0         
  1  2  2  0         
  1  6  1  0         
  2 24  1  0         
  2  3  1  0         
  3  4  2  0         
  3 22  1  0         
  4  8  1  0         
  4  5  1  0         
  5  6  2  0         
  5  7  1  0         
  6 25  1  0         
  8  9  2  0         
  8 10  1  0         
 10 11  1  0         
 10 26  1  0         
 11 16  1  0         
 11 12  2  0         
 12 13  1  0         
 12 27  1  0         
 13 14  2  0         
 13 28  1  0         
 14 15  1  0         
 15 17  1  0         
 15 16  2  0         
 16 29  1  0         
 17 18  1  0         
 17 30  1  0         
 18 19  2  0         
 18 20  1  0         
 20 21  1  0         
 21 33  1  0         
 21 31  1  0         
 21 32  1  0         
M  END
> <Flexibility_cresset>
1.3

> <Favorite_cresset>
false

> <Poses_cresset>
0

> <LF dG>
-9.185

> <#Atoms_cresset>
22

> <SlogP_cresset>
3.9

> <Protein_cresset>
AF_fixed_His_P (1)

> <MW_cresset>
340.2

> <TPSA_cresset>
80.3

> <LF VSscore>
-10.086

> <LF LE>
-0.417

> <Rof5_cresset>
0

> <Confs_cresset>
0

> <LF Rank Score>
-6.319

$$$$
