lig_jmc_27_D
  -Sire-202200300

 36 38  0  0  1  0  0  0  0  0999 V2000
   -5.8380   -3.7490  -15.8490 C   0  0  0  0  0  0  0  0  0  0  0  0
   -6.5490   -4.3680  -14.8140 C   0  0  0  0  0  0  0  0  0  0  0  0
   -7.1290   -5.6280  -14.9990 C   0  0  0  0  0  0  0  0  0  0  0  0
   -6.8800   -6.3490  -16.1900 C   0  0  0  0  0  0  0  0  0  0  0  0
   -6.1880   -5.7070  -17.2420 C   0  0  0  0  0  0  0  0  0  0  0  0
   -5.6810   -4.4110  -17.0710 C   0  0  0  0  0  0  0  0  0  0  0  0
   -6.0170   -6.4640  -18.8170 Cl  0  0  0  0  0  0  0  0  0  0  0  0
   -7.2590   -7.7910  -16.3370 C   0  0  0  0  0  0  0  0  0  0  0  0
   -6.4330   -8.6440  -16.6120 O   0  0  0  0  0  0  0  0  0  0  0  0
   -8.5780   -8.0920  -16.1070 N   0  0  0  0  0  0  0  0  0  0  0  0
   -9.1850   -9.3300  -16.3440 C   0  0  0  0  0  0  0  0  0  0  0  0
   -9.9180   -9.9580  -15.3460 C   0  0  0  0  0  0  0  0  0  0  0  0
  -10.5090  -11.1860  -15.6270 C   0  0  0  0  0  0  0  0  0  0  0  0
  -10.4030  -11.7910  -16.8240 N   0  0  0  0  0  0  0  0  0  0  0  0
   -9.6870  -11.1860  -17.7800 C   0  0  0  0  0  0  0  0  0  0  0  0
   -9.0800   -9.9470  -17.5880 C   0  0  0  0  0  0  0  0  0  0  0  0
   -9.6230  -11.8920  -18.9760 N   0  0  0  0  0  0  0  0  0  0  0  0
   -8.7020  -11.8370  -19.9960 C   0  0  0  0  0  0  0  0  0  0  0  0
   -7.7340  -11.1010  -19.9810 O   0  0  0  0  0  0  0  0  0  0  0  0
   -9.0170  -12.7660  -21.1580 C   0  0  0  0  0  0  0  0  0  0  0  0
   -7.9320  -13.4070  -22.0120 C   0  0  0  0  0  0  0  0  0  0  0  0
   -8.7400  -12.2750  -22.5710 C   0  0  0  0  0  0  0  0  0  0  0  0
   -6.1860  -13.1720  -21.6880 Cl  0  0  0  0  0  0  0  0  0  0  0  0
   -8.1920   -6.2220  -13.7270 Cl  0  0  0  0  0  0  0  0  0  0  0  0
   -9.9100  -13.3670  -21.0180 H   0  0  0  0  0  0  0  0  0  0  0  0
   -8.1050  -14.3640  -22.4990 H   0  0  0  0  0  0  0  0  0  0  0  0
   -5.4350   -2.7470  -15.7140 H   0  0  0  0  0  0  0  0  0  0  0  0
   -6.6560   -3.8670  -13.8610 H   0  0  0  0  0  0  0  0  0  0  0  0
   -5.1610   -3.9200  -17.8890 H   0  0  0  0  0  0  0  0  0  0  0  0
   -9.1730   -7.3390  -15.7920 H   0  0  0  0  0  0  0  0  0  0  0  0
  -10.0270   -9.5150  -14.3600 H   0  0  0  0  0  0  0  0  0  0  0  0
  -11.0750  -11.7150  -14.8660 H   0  0  0  0  0  0  0  0  0  0  0  0
   -8.5310   -9.4580  -18.3830 H   0  0  0  0  0  0  0  0  0  0  0  0
  -10.4310  -12.4930  -19.0930 H   0  0  0  0  0  0  0  0  0  0  0  0
   -8.2110  -11.3380  -22.7150 H   0  0  0  0  0  0  0  0  0  0  0  0
   -9.4690  -12.5080  -23.3460 H   0  0  0  0  0  0  0  0  0  0  0  0
  1  2  2  0         
  1 27  1  0         
  1  6  1  0         
  2  3  1  0         
  2 28  1  0         
  3 24  1  0         
  3  4  2  0         
  4  8  1  0         
  4  5  1  0         
  5  6  2  0         
  5  7  1  0         
  6 29  1  0         
  8  9  2  0         
  8 10  1  0         
 10 30  1  0         
 10 11  1  0         
 11 16  1  0         
 11 12  2  0         
 12 13  1  0         
 12 31  1  0         
 13 14  2  0         
 13 32  1  0         
 14 15  1  0         
 15 17  1  0         
 15 16  2  0         
 16 33  1  0         
 17 18  1  0         
 17 34  1  0         
 18 19  2  0         
 18 20  1  0         
 20 25  1  0         
 20 21  1  0         
 20 22  1  0         
 21 23  1  0         
 21 26  1  0         
 21 22  1  0         
 22 35  1  0         
 22 36  1  0         
M  END
> <Flexibility_cresset>
1.8

> <Favorite_cresset>
false

> <Poses_cresset>
0

> <LF dG>
-9.816

> <#Atoms_cresset>
24

> <SlogP_cresset>
4.3

> <Protein_cresset>
AF_fixed_His_P (1)

> <MW_cresset>
384.6

> <TPSA_cresset>
71.1

> <LF VSscore>
-10.522

> <LF LE>
-0.409

> <Rof5_cresset>
0

> <Confs_cresset>
0

> <LF Rank Score>
-5.847

$$$$
