lig_ejm_43_D
  -Sire-202200300

 38 39  0  0  0  0  0  0  0  0999 V2000
   -6.0020   -3.6600  -15.2710 C   0  0  0  0  0  0  0  0  0  0  0  0
   -5.7710   -4.1990  -16.5400 C   0  0  0  0  0  0  0  0  0  0  0  0
   -6.2100   -5.4940  -16.8410 C   0  0  0  0  0  0  0  0  0  0  0  0
   -6.9350   -6.2460  -15.8880 C   0  0  0  0  0  0  0  0  0  0  0  0
   -7.2470   -5.6510  -14.6400 C   0  0  0  0  0  0  0  0  0  0  0  0
   -6.7020   -4.4080  -14.3150 C   0  0  0  0  0  0  0  0  0  0  0  0
   -8.3300   -6.3830  -13.4530 Cl  0  0  0  0  0  0  0  0  0  0  0  0
   -7.2950   -7.6690  -16.1860 C   0  0  0  0  0  0  0  0  0  0  0  0
   -6.4580   -8.4870  -16.5310 O   0  0  0  0  0  0  0  0  0  0  0  0
   -8.6110   -8.0040  -15.9870 N   0  0  0  0  0  0  0  0  0  0  0  0
   -9.1980   -9.2390  -16.2840 C   0  0  0  0  0  0  0  0  0  0  0  0
   -9.9550   -9.9110  -15.3350 C   0  0  0  0  0  0  0  0  0  0  0  0
  -10.5120  -11.1410  -15.6790 C   0  0  0  0  0  0  0  0  0  0  0  0
  -10.3600  -11.7030  -16.8970 N   0  0  0  0  0  0  0  0  0  0  0  0
   -9.6210  -11.0500  -17.8070 C   0  0  0  0  0  0  0  0  0  0  0  0
   -9.0520   -9.8040  -17.5460 C   0  0  0  0  0  0  0  0  0  0  0  0
   -9.4880  -11.6940  -19.0430 N   0  0  0  0  0  0  0  0  0  0  0  0
   -8.4520  -11.5680  -19.9560 C   0  0  0  0  0  0  0  0  0  0  0  0
   -7.4590  -10.9100  -19.7240 O   0  0  0  0  0  0  0  0  0  0  0  0
   -8.6290  -12.3140  -21.3060 C   0  0  0  0  0  0  0  0  0  0  0  0
   -7.6360  -11.8850  -22.4330 C   0  0  0  0  0  0  0  0  0  0  0  0
   -8.6760  -13.8250  -21.1520 C   0  0  0  0  0  0  0  0  0  0  0  0
   -5.9090   -6.1110  -18.4570 Cl  0  0  0  0  0  0  0  0  0  0  0  0
   -5.6630   -2.6530  -15.0470 H   0  0  0  0  0  0  0  0  0  0  0  0
   -5.2440   -3.6110  -17.2870 H   0  0  0  0  0  0  0  0  0  0  0  0
   -6.8410   -4.0270  -13.3090 H   0  0  0  0  0  0  0  0  0  0  0  0
   -9.2160   -7.2840  -15.6180 H   0  0  0  0  0  0  0  0  0  0  0  0
  -10.1010   -9.5000  -14.3400 H   0  0  0  0  0  0  0  0  0  0  0  0
  -11.0980  -11.7020  -14.9520 H   0  0  0  0  0  0  0  0  0  0  0  0
   -8.4940   -9.2690  -18.3040 H   0  0  0  0  0  0  0  0  0  0  0  0
  -10.2920  -12.2660  -19.2750 H   0  0  0  0  0  0  0  0  0  0  0  0
   -9.6270  -12.1070  -21.6700 H   0  0  0  0  0  0  0  0  0  0  0  0
   -7.0880  -12.7430  -22.8440 H   0  0  0  0  0  0  0  0  0  0  0  0
   -8.1930  -11.4240  -23.2600 H   0  0  0  0  0  0  0  0  0  0  0  0
   -6.8910  -11.1530  -22.0970 H   0  0  0  0  0  0  0  0  0  0  0  0
   -8.8010  -14.3040  -22.1330 H   0  0  0  0  0  0  0  0  0  0  0  0
   -7.7630  -14.1940  -20.6730 H   0  0  0  0  0  0  0  0  0  0  0  0
   -9.5550  -14.0820  -20.5590 H   0  0  0  0  0  0  0  0  0  0  0  0
  1 24  1  0         
  1  2  2  0         
  1  6  1  0         
  2  3  1  0         
  2 25  1  0         
  3 23  1  0         
  3  4  2  0         
  4  8  1  0         
  4  5  1  0         
  5  6  2  0         
  5  7  1  0         
  6 26  1  0         
  8  9  2  0         
  8 10  1  0         
 10 11  1  0         
 10 27  1  0         
 11 16  1  0         
 11 12  2  0         
 12 13  1  0         
 12 28  1  0         
 13 14  2  0         
 13 29  1  0         
 14 15  1  0         
 15 17  1  0         
 15 16  2  0         
 16 30  1  0         
 17 18  1  0         
 17 31  1  0         
 18 19  2  0         
 18 20  1  0         
 20 32  1  0         
 20 21  1  0         
 20 22  1  0         
 21 33  1  0         
 21 34  1  0         
 21 35  1  0         
 22 38  1  0         
 22 36  1  0         
 22 37  1  0         
M  END
> <Flexibility_cresset>
1.8

> <Favorite_cresset>
false

> <Poses_cresset>
0

> <LF dG>
-9.338

> <#Atoms_cresset>
23

> <SlogP_cresset>
4.3

> <Protein_cresset>
AF_fixed_His_P (1)

> <MW_cresset>
352.2

> <TPSA_cresset>
71.1

> <LF VSscore>
-10.251

> <LF LE>
-0.406

> <Rof5_cresset>
0

> <Confs_cresset>
0

> <LF Rank Score>
-5.783

$$$$
