lig_ejm_50_D
  xed2sdf           3D
 
 33 34  0  0  0  0  0  0  0  0999 V2000
   -5.7000   -3.5500  -16.6460 C   0  0  0  0  0  0  0  0  0  0  0  0
   -6.3480   -3.9680  -15.4790 C   0  0  0  0  0  0  0  0  0  0  0  0
   -6.8830   -5.2620  -15.3800 C   0  0  0  0  0  0  0  0  0  0  0  0
   -6.7200   -6.1780  -16.4470 C   0  0  0  0  0  0  0  0  0  0  0  0
   -6.1160   -5.7220  -17.6430 C   0  0  0  0  0  0  0  0  0  0  0  0
   -5.6050   -4.4190  -17.7370 C   0  0  0  0  0  0  0  0  0  0  0  0
   -6.0410   -6.7370  -19.0730 Cl  0  0  0  0  0  0  0  0  0  0  0  0
   -7.1120   -7.6250  -16.3340 C   0  0  0  0  0  0  0  0  0  0  0  0
   -6.3050   -8.5190  -16.5160 O   0  0  0  0  0  0  0  0  0  0  0  0
   -8.4230   -7.8850  -16.0180 N   0  0  0  0  0  0  0  0  0  0  0  0
   -9.0780   -9.1210  -16.1620 C   0  0  0  0  0  0  0  0  0  0  0  0
   -9.8760   -9.6220  -15.1410 C   0  0  0  0  0  0  0  0  0  0  0  0
  -10.5770  -10.8110  -15.3570 C   0  0  0  0  0  0  0  0  0  0  0  0
  -10.5130  -11.4980  -16.5140 N   0  0  0  0  0  0  0  0  0  0  0  0
   -9.7350  -11.0130  -17.4890 C   0  0  0  0  0  0  0  0  0  0  0  0
   -9.0170   -9.8250  -17.3610 C   0  0  0  0  0  0  0  0  0  0  0  0
   -9.7430  -11.7910  -18.6420 N   0  0  0  0  0  0  0  0  0  0  0  0
   -8.8950  -11.8210  -19.7260 C   0  0  0  0  0  0  0  0  0  0  0  0
   -7.9400  -11.0780  -19.8480 O   0  0  0  0  0  0  0  0  0  0  0  0
   -9.2190  -12.8980  -20.7930 C   0  0  0  0  0  0  0  0  0  0  0  0
   -8.1010  -13.7880  -21.0180 O   0  0  0  0  0  0  0  0  0  0  0  0
   -7.7540   -5.6720  -13.9120 Cl  0  0  0  0  0  0  0  0  0  0  0  0
   -5.2900   -2.5440  -16.7080 H   0  0  0  0  0  0  0  0  0  0  0  0
   -6.4310   -3.2790  -14.6470 H   0  0  0  0  0  0  0  0  0  0  0  0
   -5.1300   -4.0840  -18.6560 H   0  0  0  0  0  0  0  0  0  0  0  0
   -8.9980   -7.0950  -15.7640 H   0  0  0  0  0  0  0  0  0  0  0  0
   -9.9580   -9.1040  -14.1900 H   0  0  0  0  0  0  0  0  0  0  0  0
  -11.2180  -11.2250  -14.5840 H   0  0  0  0  0  0  0  0  0  0  0  0
   -8.4290   -9.4330  -18.1810 H   0  0  0  0  0  0  0  0  0  0  0  0
  -10.5500  -12.4020  -18.6680 H   0  0  0  0  0  0  0  0  0  0  0  0
   -9.4790  -12.3770  -21.7220 H   0  0  0  0  0  0  0  0  0  0  0  0
  -10.1020  -13.4650  -20.4740 H   0  0  0  0  0  0  0  0  0  0  0  0
   -7.3720  -13.2510  -21.4050 H   0  0  0  0  0  0  0  0  0  0  0  0
  1  2  2  0
  1  6  1  0
  2  3  1  0
  3  4  2  0
  3 22  1  0
  4  5  1  0
  4  8  1  0
  5  6  2  0
  5  7  1  0
  8  9  2  0
  8 10  1  0
 10 11  1  0
 11 12  2  0
 11 16  1  0
 12 13  1  0
 13 14  2  0
 14 15  1  0
 15 16  2  0
 15 17  1  0
 17 18  1  0
 18 19  2  0
 18 20  1  0
 20 21  1  0
  1 23  1  0
  2 24  1  0
  6 25  1  0
 10 26  1  0
 12 27  1  0
 13 28  1  0
 16 29  1  0
 17 30  1  0
 20 31  1  0
 20 32  1  0
 21 33  1  0
M  END
>  <LF dG>
-9.343

>  <LF VSscore>
-10.691

>  <LF Rank Score>
-10.748

>  <LF LE>
-0.425

>  <Favorite_cresset>
false

>  <Protein_cresset>
AF_fixed_His_P (1)

>  <MW_cresset>
340.2

>  <#Atoms_cresset>
22

>  <SlogP_cresset>
3

>  <TPSA_cresset>
91.3

>  <Flexibility_cresset>
2.8

>  <Rof5_cresset>
0

>  <Confs_cresset>
0

>  <Poses_cresset>
0

$$$$
