lig_ejm_54_D
  xed2sdf           3D
 
 37 38  0  0  0  0  0  0  0  0999 V2000
   -5.7320   -3.5590  -16.6310 C   0  0  0  0  0  0  0  0  0  0  0  0
   -6.3150   -3.8970  -15.4040 C   0  0  0  0  0  0  0  0  0  0  0  0
   -6.8750   -5.1680  -15.2000 C   0  0  0  0  0  0  0  0  0  0  0  0
   -6.8010   -6.1430  -16.2250 C   0  0  0  0  0  0  0  0  0  0  0  0
   -6.2540   -5.7710  -17.4750 C   0  0  0  0  0  0  0  0  0  0  0  0
   -5.7260   -4.4900  -17.6750 C   0  0  0  0  0  0  0  0  0  0  0  0
   -6.2750   -6.8740  -18.8410 Cl  0  0  0  0  0  0  0  0  0  0  0  0
   -7.2230   -7.5720  -16.0330 C   0  0  0  0  0  0  0  0  0  0  0  0
   -6.4380   -8.4880  -16.2160 O   0  0  0  0  0  0  0  0  0  0  0  0
   -8.5320   -7.8000  -15.6710 N   0  0  0  0  0  0  0  0  0  0  0  0
   -9.2030   -9.0200  -15.8870 C   0  0  0  0  0  0  0  0  0  0  0  0
   -9.9630   -9.6310  -14.8960 C   0  0  0  0  0  0  0  0  0  0  0  0
  -10.6160  -10.8320  -15.1970 C   0  0  0  0  0  0  0  0  0  0  0  0
  -10.5350  -11.4370  -16.4000 N   0  0  0  0  0  0  0  0  0  0  0  0
   -9.7870  -10.8510  -17.3420 C   0  0  0  0  0  0  0  0  0  0  0  0
   -9.1350   -9.6360  -17.1340 C   0  0  0  0  0  0  0  0  0  0  0  0
   -9.7390  -11.5410  -18.5530 N   0  0  0  0  0  0  0  0  0  0  0  0
   -8.7820  -11.4990  -19.5270 C   0  0  0  0  0  0  0  0  0  0  0  0
   -7.7970  -10.7930  -19.4860 O   0  0  0  0  0  0  0  0  0  0  0  0
   -9.0370  -12.3250  -20.5930 N   0  0  0  0  0  0  0  0  0  0  0  0
   -8.0850  -12.4470  -21.7170 C   0  0  0  0  0  0  0  0  0  0  0  0
   -8.6550  -13.2780  -22.8760 C   0  0  0  0  0  0  0  0  0  0  0  0
   -7.6630   -5.4790  -13.6620 Cl  0  0  0  0  0  0  0  0  0  0  0  0
   -5.3140   -2.5670  -16.7840 H   0  0  0  0  0  0  0  0  0  0  0  0
   -6.3310   -3.1610  -14.6070 H   0  0  0  0  0  0  0  0  0  0  0  0
   -5.3190   -4.2180  -18.6460 H   0  0  0  0  0  0  0  0  0  0  0  0
   -9.0980   -6.9930  -15.4480 H   0  0  0  0  0  0  0  0  0  0  0  0
  -10.0480   -9.1960  -13.9040 H   0  0  0  0  0  0  0  0  0  0  0  0
  -11.2260  -11.3320  -14.4520 H   0  0  0  0  0  0  0  0  0  0  0  0
   -8.5700   -9.1590  -17.9260 H   0  0  0  0  0  0  0  0  0  0  0  0
  -10.5300  -12.1530  -18.6950 H   0  0  0  0  0  0  0  0  0  0  0  0
   -9.9060  -12.8430  -20.6120 H   0  0  0  0  0  0  0  0  0  0  0  0
   -7.1630  -12.9210  -21.3520 H   0  0  0  0  0  0  0  0  0  0  0  0
   -7.8230  -11.4450  -22.0880 H   0  0  0  0  0  0  0  0  0  0  0  0
   -9.4440  -12.7210  -23.3970 H   0  0  0  0  0  0  0  0  0  0  0  0
   -7.8620  -13.5070  -23.6010 H   0  0  0  0  0  0  0  0  0  0  0  0
   -9.0710  -14.2250  -22.5130 H   0  0  0  0  0  0  0  0  0  0  0  0
  1  2  2  0
  1  6  1  0
  2  3  1  0
  3  4  2  0
  3 23  1  0
  4  5  1  0
  4  8  1  0
  5  6  2  0
  5  7  1  0
  8  9  2  0
  8 10  1  0
 10 11  1  0
 11 12  2  0
 11 16  1  0
 12 13  1  0
 13 14  2  0
 14 15  1  0
 15 16  2  0
 15 17  1  0
 17 18  1  0
 18 19  2  0
 18 20  1  0
 20 21  1  0
 21 22  1  0
  1 24  1  0
  2 25  1  0
  6 26  1  0
 10 27  1  0
 12 28  1  0
 13 29  1  0
 16 30  1  0
 17 31  1  0
 20 32  1  0
 21 33  1  0
 21 34  1  0
 22 35  1  0
 22 36  1  0
 22 37  1  0
M  END
>  <LF dG>
-9.645

>  <LF VSscore>
-10.604

>  <LF Rank Score>
-6.382

>  <LF LE>
-0.419

>  <Favorite_cresset>
false

>  <Protein_cresset>
AF_fixed_His_P (1)

>  <MW_cresset>
353.2

>  <#Atoms_cresset>
23

>  <SlogP_cresset>
3.8

>  <TPSA_cresset>
83.1

>  <Flexibility_cresset>
2.3

>  <Rof5_cresset>
0

>  <Confs_cresset>
0

>  <Poses_cresset>
0

$$$$
