lig_jmc_28_D
  xed2sdf           3D
 
 39 41  0  0  1  0  0  0  0  0999 V2000
   -5.8430   -3.6610  -15.7420 C   0  0  0  0  0  0  0  0  0  0  0  0
   -6.5390   -4.3150  -14.7200 C   0  0  0  0  0  0  0  0  0  0  0  0
   -7.1170   -5.5710  -14.9360 C   0  0  0  0  0  0  0  0  0  0  0  0
   -6.8630   -6.2610  -16.1470 C   0  0  0  0  0  0  0  0  0  0  0  0
   -6.1790   -5.5860  -17.1830 C   0  0  0  0  0  0  0  0  0  0  0  0
   -5.6910   -4.2860  -16.9850 C   0  0  0  0  0  0  0  0  0  0  0  0
   -5.9880   -6.3070  -18.7740 Cl  0  0  0  0  0  0  0  0  0  0  0  0
   -7.2290   -7.7030  -16.3300 C   0  0  0  0  0  0  0  0  0  0  0  0
   -6.4020   -8.5390  -16.6540 O   0  0  0  0  0  0  0  0  0  0  0  0
   -8.5360   -8.0290  -16.0740 N   0  0  0  0  0  0  0  0  0  0  0  0
   -9.1490   -9.2620  -16.3220 C   0  0  0  0  0  0  0  0  0  0  0  0
   -9.9700   -9.8340  -15.3620 C   0  0  0  0  0  0  0  0  0  0  0  0
  -10.6000  -11.0400  -15.6540 C   0  0  0  0  0  0  0  0  0  0  0  0
  -10.4530  -11.6720  -16.8340 N   0  0  0  0  0  0  0  0  0  0  0  0
   -9.6540  -11.1200  -17.7570 C   0  0  0  0  0  0  0  0  0  0  0  0
   -8.9990   -9.9080  -17.5450 C   0  0  0  0  0  0  0  0  0  0  0  0
   -9.5730  -11.8400  -18.9490 N   0  0  0  0  0  0  0  0  0  0  0  0
   -8.6560  -11.7780  -19.9770 C   0  0  0  0  0  0  0  0  0  0  0  0
   -7.6930  -11.0360  -19.9670 O   0  0  0  0  0  0  0  0  0  0  0  0
   -8.9620  -12.7120  -21.1420 C   0  0  0  0  0  0  0  0  0  0  0  0
   -7.8910  -13.3580  -22.0190 C   0  0  0  0  0  0  0  0  0  0  0  0
   -8.7020  -12.2190  -22.5580 C   0  0  0  0  0  0  0  0  0  0  0  0
   -6.3820  -13.1580  -21.8520 C   0  0  0  0  0  0  0  0  0  0  0  0
   -8.1750   -6.1990  -13.6750 Cl  0  0  0  0  0  0  0  0  0  0  0  0
   -9.8650  -13.3010  -21.0020 H   0  0  0  0  0  0  0  0  0  0  0  0
   -8.1390  -14.3150  -22.4680 H   0  0  0  0  0  0  0  0  0  0  0  0
   -5.4460   -2.6600  -15.5840 H   0  0  0  0  0  0  0  0  0  0  0  0
   -6.6360   -3.8480  -13.7480 H   0  0  0  0  0  0  0  0  0  0  0  0
   -5.1830   -3.7670  -17.7920 H   0  0  0  0  0  0  0  0  0  0  0  0
   -9.1220   -7.2980  -15.6960 H   0  0  0  0  0  0  0  0  0  0  0  0
  -10.1190   -9.3600  -14.3960 H   0  0  0  0  0  0  0  0  0  0  0  0
  -11.2540  -11.5140  -14.9260 H   0  0  0  0  0  0  0  0  0  0  0  0
   -8.3850   -9.4580  -18.3150 H   0  0  0  0  0  0  0  0  0  0  0  0
  -10.3700  -12.4550  -19.0600 H   0  0  0  0  0  0  0  0  0  0  0  0
   -8.1780  -11.2780  -22.7130 H   0  0  0  0  0  0  0  0  0  0  0  0
   -9.4400  -12.4520  -23.3210 H   0  0  0  0  0  0  0  0  0  0  0  0
   -6.1090  -12.1000  -21.7630 H   0  0  0  0  0  0  0  0  0  0  0  0
   -6.0030  -13.6800  -20.9700 H   0  0  0  0  0  0  0  0  0  0  0  0
   -5.8490  -13.5590  -22.7230 H   0  0  0  0  0  0  0  0  0  0  0  0
  1  2  2  0
  1  6  1  0
  2  3  1  0
  3  4  2  0
  3 24  1  0
  4  5  1  0
  4  8  1  0
  5  6  2  0
  5  7  1  0
  8  9  2  0
  8 10  1  0
 10 11  1  0
 11 12  2  0
 11 16  1  0
 12 13  1  0
 13 14  2  0
 14 15  1  0
 15 16  2  0
 15 17  1  0
 17 18  1  0
 18 19  2  0
 18 20  1  0
 20 21  1  0
 20 22  1  0
 21 22  1  0
 21 23  1  0
  1 27  1  0
  2 28  1  0
  6 29  1  0
 10 30  1  0
 12 31  1  0
 13 32  1  0
 16 33  1  0
 17 34  1  0
 20 25  1  0
 21 26  1  0
 22 35  1  0
 22 36  1  0
 23 37  1  0
 23 38  1  0
 23 39  1  0
M  END
>  <LF dG>
-9.505

>  <LF VSscore>
-10.378

>  <LF Rank Score>
-5.899

>  <LF LE>
-0.396

>  <Favorite_cresset>
false

>  <Protein_cresset>
AF_fixed_His_P (1)

>  <MW_cresset>
364.2

>  <#Atoms_cresset>
24

>  <SlogP_cresset>
4.3

>  <TPSA_cresset>
71.1

>  <Flexibility_cresset>
1.8

>  <Rof5_cresset>
0

>  <Confs_cresset>
0

>  <Poses_cresset>
0

$$$$
